@<TRIPOS>MOLECULE
STI
   68    72     0     0     0
SMALL
NO_CHARGES

@<TRIPOS>ATOM
      1 C1          2.7400   -0.0220    8.8890 C.ar      1 STI_ideal         0.0000
      2 C2          1.9140    0.2070    7.8020 C.ar      1 STI_ideal         0.0000
      3 C3          2.4350    0.0090    6.5200 C.ar      1 STI_ideal         0.0000
      4 C4          3.7550   -0.4130    6.3870 C.ar      1 STI_ideal         0.0000
      5 N1          4.5050   -0.6140    7.4520 N.ar      1 STI_ideal         0.0000
      6 C5          4.0420   -0.4360    8.6740 C.ar      1 STI_ideal         0.0000
      7 C6          1.5930    0.2410    5.3210 C.ar      1 STI_ideal         0.0000
      8 C7          2.1310    0.8480    4.1830 C.ar      1 STI_ideal         0.0000
      9 C8          1.3080    1.0420    3.0880 C.ar      1 STI_ideal         0.0000
     10 N2          0.0450    0.6510    3.1500 N.ar      1 STI_ideal         0.0000
     11 C9         -0.4380    0.0770    4.2420 C.ar      1 STI_ideal         0.0000
     12 N3          0.3130   -0.1220    5.3140 N.ar      1 STI_ideal         0.0000
     13 N4         -1.7650   -0.3170    4.2660 N.pl3     1 STI_ideal         0.0000
     14 C10        -2.5410   -0.2300    3.1060 C.ar      1 STI_ideal         0.0000
     15 C11        -3.9010    0.0400    3.1980 C.ar      1 STI_ideal         0.0000
     16 C12        -4.6690    0.1260    2.0520 C.ar      1 STI_ideal         0.0000
     17 C13        -4.0870   -0.0560    0.8120 C.ar      1 STI_ideal         0.0000
     18 C14        -2.7280   -0.3270    0.7140 C.ar      1 STI_ideal         0.0000
     19 C15        -1.9550   -0.4190    1.8620 C.ar      1 STI_ideal         0.0000
     20 N5         -2.1400   -0.5120   -0.5410 N.am      1 STI_ideal         0.0000
     21 C16        -2.5470    0.2280   -1.5910 C.2       1 STI_ideal         0.0000
     22 C17        -1.9940   -0.0310   -2.9370 C.ar      1 STI_ideal         0.0000
     23 C18        -2.4130    0.7340   -4.0270 C.ar      1 STI_ideal         0.0000
     24 C19        -1.8920    0.4860   -5.2800 C.ar      1 STI_ideal         0.0000
     25 C20        -0.9570   -0.5170   -5.4580 C.ar      1 STI_ideal         0.0000
     26 C21        -0.5420   -1.2830   -4.3840 C.ar      1 STI_ideal         0.0000
     27 C22        -1.0500   -1.0420   -3.1240 C.ar      1 STI_ideal         0.0000
     28 C23        -0.3930   -0.7810   -6.8300 C.3       1 STI_ideal         0.0000
     29 N6          0.8090    0.0380   -7.0320 N.3       1 STI_ideal         0.0000
     30 C24         1.3060   -0.2640   -8.3790 C.3       1 STI_ideal         0.0000
     31 C25         2.6290    0.4630   -8.6150 C.3       1 STI_ideal         0.0000
     32 N7          3.6380   -0.0270   -7.6680 N.3       1 STI_ideal         0.0000
     33 C26         4.8400    0.7920   -7.8700 C.3       1 STI_ideal         0.0000
     34 C27         3.1410    0.2760   -6.3210 C.3       1 STI_ideal         0.0000
     35 C28         1.8170   -0.4520   -6.0850 C.3       1 STI_ideal         0.0000
     36 O1         -3.3680    1.1100   -1.4310 O.2       1 STI_ideal         0.0000
     37 C29        -4.5390    0.2400    4.5480 C.3       1 STI_ideal         0.0000
     38 H1          2.3710    0.1200    9.8940 H         1 STI_ideal         0.0000
     39 H2          0.8930    0.5320    7.9410 H         1 STI_ideal         0.0000
     40 H3          4.1710   -0.5700    5.4030 H         1 STI_ideal         0.0000
     41 H4          4.6890   -0.6160    9.5190 H         1 STI_ideal         0.0000
     42 H5          3.1660    1.1570    4.1590 H         1 STI_ideal         0.0000
     43 H6          1.6920    1.5080    2.1930 H         1 STI_ideal         0.0000
     44 H7         -2.1570   -0.6540    5.0870 H         1 STI_ideal         0.0000
     45 H8         -5.7250    0.3360    2.1260 H         1 STI_ideal         0.0000
     46 H9         -4.6900    0.0110   -0.0800 H         1 STI_ideal         0.0000
     47 H10        -0.8990   -0.6300    1.7880 H         1 STI_ideal         0.0000
     48 H11        -1.4400   -1.1730   -0.6560 H         1 STI_ideal         0.0000
     49 H12        -3.1420    1.5180   -3.8890 H         1 STI_ideal         0.0000
     50 H13        -2.2160    1.0770   -6.1240 H         1 STI_ideal         0.0000
     51 H14         0.1870   -2.0650   -4.5300 H         1 STI_ideal         0.0000
     52 H15        -0.7220   -1.6380   -2.2850 H         1 STI_ideal         0.0000
     53 H16        -1.1370   -0.5260   -7.5850 H         1 STI_ideal         0.0000
     54 H17        -0.1320   -1.8360   -6.9190 H         1 STI_ideal         0.0000
     55 H18         0.5740    0.0630   -9.1180 H         1 STI_ideal         0.0000
     56 H19         1.4600   -1.3390   -8.4750 H         1 STI_ideal         0.0000
     57 H20         2.4860    1.5330   -8.4700 H         1 STI_ideal         0.0000
     58 H21         2.9680    0.2780   -9.6350 H         1 STI_ideal         0.0000
     59 H22         5.6230    0.4640   -7.1850 H         1 STI_ideal         0.0000
     60 H23         5.1870    0.6820   -8.8970 H         1 STI_ideal         0.0000
     61 H24         4.6030    1.8380   -7.6760 H         1 STI_ideal         0.0000
     62 H25         3.8720   -0.0520   -5.5820 H         1 STI_ideal         0.0000
     63 H26         2.9860    1.3500   -6.2250 H         1 STI_ideal         0.0000
     64 H27         1.4780   -0.2670   -5.0650 H         1 STI_ideal         0.0000
     65 H28         1.9610   -1.5220   -6.2300 H         1 STI_ideal         0.0000
     66 H29        -4.8900   -0.7180    4.9300 H         1 STI_ideal         0.0000
     67 H30        -3.8070    0.6610    5.2370 H         1 STI_ideal         0.0000
     68 H31        -5.3830    0.9240    4.4530 H         1 STI_ideal         0.0000
@<TRIPOS>BOND
     1    1    2 ar
     2    1    6 ar
     3    1   38 1
     4    2    3 ar
     5    2   39 1
     6    3    4 ar
     7    3    7 1
     8    4    5 ar
     9    4   40 1
    10    5    6 ar
    11    6   41 1
    12    7    8 ar
    13    7   12 ar
    14    8    9 ar
    15    8   42 1
    16    9   10 ar
    17    9   43 1
    18   10   11 ar
    19   11   12 ar
    20   11   13 1
    21   13   14 1
    22   13   44 1
    23   14   15 ar
    24   14   19 ar
    25   15   16 ar
    26   15   37 1
    27   16   17 ar
    28   16   45 1
    29   17   18 ar
    30   17   46 1
    31   18   19 ar
    32   18   20 1
    33   19   47 1
    34   20   21 am
    35   20   48 1
    36   21   22 1
    37   21   36 2
    38   22   23 ar
    39   22   27 ar
    40   23   24 ar
    41   23   49 1
    42   24   25 ar
    43   24   50 1
    44   25   26 ar
    45   25   28 1
    46   26   27 ar
    47   26   51 1
    48   27   52 1
    49   28   29 1
    50   28   53 1
    51   28   54 1
    52   29   30 1
    53   29   35 1
    54   30   31 1
    55   30   55 1
    56   30   56 1
    57   31   32 1
    58   31   57 1
    59   31   58 1
    60   32   33 1
    61   32   34 1
    62   33   59 1
    63   33   60 1
    64   33   61 1
    65   34   35 1
    66   34   62 1
    67   34   63 1
    68   35   64 1
    69   35   65 1
    70   37   66 1
    71   37   67 1
    72   37   68 1
