REMARK  Name = STI
REMARK  8 active torsions:
REMARK  status: ('A' for Active; 'I' for Inactive)
REMARK    1  A    between atoms: C3_3  and  C6_7
REMARK    2  A    between atoms: N4_13  and  C10_14
REMARK    3  A    between atoms: C11_15  and  C29_37
REMARK    4  A    between atoms: C14_18  and  N5_20
REMARK    5  A    between atoms: C16_21  and  C17_22
REMARK    6  A    between atoms: C20_25  and  C23_28
REMARK    7  A    between atoms: C23_28  and  N6_29
REMARK    8  A    between atoms: N7_32  and  C26_33
REMARK                            x       y       z     vdW  Elec       q    Type
REMARK                         _______ _______ _______ _____ _____    ______ ____
ROOT
ATOM     14  C10 STI A   1      -2.541  -0.230   3.106  0.00  0.00    +0.000 A 
ATOM     15  C11 STI A   1      -3.901   0.040   3.198  0.00  0.00    +0.000 A 
ATOM     16  C12 STI A   1      -4.669   0.126   2.052  0.00  0.00    +0.000 A 
ATOM     17  C13 STI A   1      -4.087  -0.056   0.812  0.00  0.00    +0.000 A 
ATOM     18  C14 STI A   1      -2.728  -0.327   0.714  0.00  0.00    +0.000 A 
ATOM     19  C15 STI A   1      -1.955  -0.419   1.862  0.00  0.00    +0.000 A 
ATOM     37  C29 STI A   1      -4.539   0.240   4.548  0.00  0.00    +0.000 C 
ENDROOT
BRANCH  14  13
ATOM      7  C6  STI A   1       1.593   0.241   5.321  0.00  0.00    +0.000 A 
ATOM      8  C7  STI A   1       2.131   0.848   4.183  0.00  0.00    +0.000 A 
ATOM      9  C8  STI A   1       1.308   1.042   3.088  0.00  0.00    +0.000 A 
ATOM     10  N2  STI A   1       0.045   0.651   3.150  0.00  0.00    +0.000 NA
ATOM     11  C9  STI A   1      -0.438   0.077   4.242  0.00  0.00    +0.000 A 
ATOM     12  N3  STI A   1       0.313  -0.122   5.314  0.00  0.00    +0.000 NA
ATOM     13  N4  STI A   1      -1.765  -0.317   4.266  0.00  0.00    +0.000 N 
ATOM     38  H7  STI A   1      -2.157  -0.654   5.087  0.00  0.00    +0.000 HD
BRANCH   7   3
ATOM      1  C1  STI A   1       2.740  -0.022   8.889  0.00  0.00    +0.000 A 
ATOM      2  C2  STI A   1       1.914   0.207   7.802  0.00  0.00    +0.000 A 
ATOM      3  C3  STI A   1       2.435   0.009   6.520  0.00  0.00    +0.000 A 
ATOM      4  C4  STI A   1       3.755  -0.413   6.387  0.00  0.00    +0.000 A 
ATOM      5  N1  STI A   1       4.505  -0.614   7.452  0.00  0.00    +0.000 NA
ATOM      6  C5  STI A   1       4.042  -0.436   8.674  0.00  0.00    +0.000 A 
ENDBRANCH   7   3
ENDBRANCH  14  13
BRANCH  18  20
ATOM     20  N5  STI A   1      -2.140  -0.512  -0.541  0.00  0.00    +0.000 N 
ATOM     21  C16 STI A   1      -2.547   0.228  -1.591  0.00  0.00    +0.000 C 
ATOM     36  O1  STI A   1      -3.368   1.110  -1.431  0.00  0.00    +0.000 OA
ATOM     39  H11 STI A   1      -1.440  -1.173  -0.656  0.00  0.00    +0.000 HD
BRANCH  21  22
ATOM     22  C17 STI A   1      -1.994  -0.031  -2.937  0.00  0.00    +0.000 A 
ATOM     23  C18 STI A   1      -2.413   0.734  -4.027  0.00  0.00    +0.000 A 
ATOM     24  C19 STI A   1      -1.892   0.486  -5.280  0.00  0.00    +0.000 A 
ATOM     25  C20 STI A   1      -0.957  -0.517  -5.458  0.00  0.00    +0.000 A 
ATOM     26  C21 STI A   1      -0.542  -1.283  -4.384  0.00  0.00    +0.000 A 
ATOM     27  C22 STI A   1      -1.050  -1.042  -3.124  0.00  0.00    +0.000 A 
BRANCH  25  28
ATOM     28  C23 STI A   1      -0.393  -0.781  -6.830  0.00  0.00    +0.000 C 
BRANCH  28  29
ATOM     29  N6  STI A   1       0.809   0.038  -7.032  0.00  0.00    +0.000 NA
ATOM     30  C24 STI A   1       1.306  -0.264  -8.379  0.00  0.00    +0.000 C 
ATOM     31  C25 STI A   1       2.629   0.463  -8.615  0.00  0.00    +0.000 C 
ATOM     32  N7  STI A   1       3.638  -0.027  -7.668  0.00  0.00    +0.000 NA
ATOM     33  C26 STI A   1       4.840   0.792  -7.870  0.00  0.00    +0.000 C 
ATOM     34  C27 STI A   1       3.141   0.276  -6.321  0.00  0.00    +0.000 C 
ATOM     35  C28 STI A   1       1.817  -0.452  -6.085  0.00  0.00    +0.000 C 
ENDBRANCH  28  29
ENDBRANCH  25  28
ENDBRANCH  21  22
ENDBRANCH  18  20
TORSDOF 6
